Data/snemSA.m
%% MATPOWER Case Format : Version 2
function mpc = NEM
mpc.version = '2';

%%-----  Power Flow Data  -----%%
%% system MVA base
mpc.baseMVA = 100;
%% bus data
%    bus_i    type    Pd    Qd    Gs    Bs    area    Vm    Va    baseKV    zone    Vmax    Vmin
mpc.bus = [
	986	3	138.552599392959	0.0	0.0	73.68624611408447	4	1.011030000001766	22.766429816740835	165.0	1	1.1	0.9				
	1633	1	0.0	0.0	0.0	0.0	4	0.9443730055732328	52.40677538701527	33.0	1	1.1	0.9				
	1634	1	0.0	0.0	0.0	6.691294436361639	4	0.986289796146066	42.93234347543179	11.0	1	1.1	0.9				
	1635	1	0.0	0.0	0.0	0.0	4	1.0511463714170635	53.60163274319466	275.0	1	1.1	0.9				
	1636	2	0.0	0.0	0.0	0.0	4	0.9935200000002254	73.0121649228158	0.6899999999999998	1	1.1	0.9				
	1637	1	-43.459951306032	0.0	0.0	-0.9790376942120491	4	1.0089022233313751	69.26867531335951	0.4	1	1.1	0.9				
	1638	1	0.0	0.0	0.0	0.0	4	0.9907593948925614	64.781109015474	11.0	1	1.1	0.9				
	1639	1	0.0	0.0	0.0	0.0	4	0.9734418307977373	63.70086617326577	11.0	1	1.1	0.9				
	1640	2	0.0	0.0	0.0	0.0	4	0.9987299999997172	60.70797223698689	1.0	1	1.1	0.9				
	1641	2	0.0	0.0	0.0	0.0	4	0.9940999999997856	58.64375931176205	1.0	1	1.1	0.9				
	1642	2	0.0	0.0	0.0	0.0	4	0.9949299999998024	58.07138608586238	0.48	1	1.1	0.9				
	1643	2	-2.00688195452094	0.0	0.0	0.0	4	1.036030000000822	61.44886453177118	0.6899999999999998	1	1.1	0.9				
	1644	1	-23.3537939124182	0.0	0.0	0.0	4	1.0310888516920709	60.89964109337467	0.6899999999999998	1	1.1	0.9				
	1645	1	-19.8507007576697	0.0	0.0	0.0	4	1.034167236506668	60.150338509251284	0.6899999999999998	1	1.1	0.9				
	1646	2	0.0	0.0	0.0	0.0	4	1.0328200000000323	61.701453704797956	0.6899999999999998	1	1.1	0.9				
	1647	1	0.0	0.0	0.0	1.7233732483209998	4	1.0169578857997381	58.468608083122604	0.48	1	1.1	0.9				
	1648	1	0.0	0.0	0.0	1.72064088531537	4	1.0169383733119473	58.468608083124195	0.48	1	1.1	0.9				
	1649	1	0.0	0.0	0.0	1.1054837101418495	4	1.0136685102828245	59.14506413077999	0.48	1	1.1	0.9				
	1650	1	0.0	0.0	0.0	1.1279398342058995	4	1.0136925371927195	59.1450641307671	0.48	1	1.1	0.9				
	1651	2	0.0	0.0	0.0	0.0	4	1.0218500000006283	59.91954469266998	0.6899999999999998	1	1.1	0.9				
	1652	2	0.0	0.0	0.0	0.0	4	1.0170300000004575	65.08591311779946	0.6899999999999998	1	1.1	0.9				
	1653	2	0.0	0.0	0.0	0.0	4	1.0256100000006032	60.69215980750943	0.6899999999999998	1	1.1	0.9				
	1654	2	0.0	0.0	0.0	0.0	4	1.0126300000006265	64.20563804306775	0.6899999999999998	1	1.1	0.9				
	1655	2	0.0	0.0	0.0	0.0	4	1.013580000000674	62.835726955859855	0.6899999999999998	1	1.1	0.9				
	1656	2	0.0	0.0	0.0	0.0	4	1.0154400000006538	63.52518140507849	0.6899999999999998	1	1.1	0.9				
	1657	1	14.997183499787997	0.0	0.0	1.4999104982083695	4	1.0935165858585676	55.46970399904894	33.0	1	1.1	0.9				
	1658	2	0.0	0.0	0.0	0.0	4	0.9931800000007519	53.35593610984631	0.6899999999999998	1	1.1	0.9				
	1659	2	0.0	0.0	0.0	0.0	4	0.9806400000009817	45.7630765566112	11.5	1	1.1	0.9				
	1660	2	0.0	0.0	0.0	0.0	4	0.98165000000098	45.7630765566112	11.5	1	1.1	0.9				
	1661	2	0.0	0.0	0.0	0.0	4	0.9734700000009826	45.76307679675496	11.5	1	1.1	0.9				
	1662	2	0.0	0.0	0.0	0.0	4	0.9827700000009835	45.76307679675496	11.5	1	1.1	0.9				
	1663	2	3.0339916959999997	0.0	0.0	0.0	4	1.0142843700010258	45.76307762604623	66.0	1	1.1	0.9				
	1664	1	8.771568784897259	2.5900974000758	0.0	0.0	4	0.9869287029129908	46.46649585414745	33.0	1	1.1	0.9				
	1665	2	0.0	0.0	0.0	0.0	4	0.9760600000009765	46.40404367709652	11.5	1	1.1	0.9				
	1666	2	0.0	0.0	0.0	0.0	4	0.9660300000009765	46.40404367709652	11.5	1	1.1	0.9				
	1667	2	0.0	0.0	0.0	0.0	4	0.9779000000009739	46.404043943798335	11.5	1	1.1	0.9				
	1668	2	0.0	0.0	0.0	0.0	4	0.9769300000009765	46.404043943798335	11.5	1	1.1	0.9				
	1669	2	0.0	0.0	0.0	0.0	4	0.9742700000009783	46.40404461962662	11.5	1	1.1	0.9				
	1670	1	0.0	0.0	0.0	0.0	4	1.0192181335237653	46.40404462189502	66.0	1	1.1	0.9				
	1671	1	0.0	0.0	0.0	0.0	4	0.9913008253859529	54.936793567575506	13.2	1	1.1	0.9				
	1672	1	0.0	0.0	0.0	0.0	4	0.9913008253859529	54.936793567575506	13.2	1	1.1	0.9				
	1673	1	0.0	0.0	0.0	0.0	4	0.9913008402692012	54.93679441575785	10.5	1	1.1	0.9				
	1674	1	0.0	0.0	0.0	0.0	4	0.9913008402692012	54.93679441575785	10.5	1	1.1	0.9				
	1675	1	0.0	0.0	0.0	0.0	4	0.9913008230484446	54.936793551070174	9.5	1	1.1	0.9				
	1676	1	0.0	0.0	0.0	0.0	4	0.9913008230484446	54.936793551070174	9.5	1	1.1	0.9				
	1677	1	0.0	0.0	0.0	0.0	4	0.9913008321516422	54.93679395508923	10.5	1	1.1	0.9				
	1678	1	0.0	0.0	0.0	0.0	4	0.9913008321516422	54.93679395508923	10.5	1	1.1	0.9				
	1679	2	0.0	0.0	0.0	0.0	4	1.0673300000006525	62.49506388763963	0.6899999999999998	1	1.1	0.9				
	1680	2	0.0	0.0	0.0	0.0	4	1.0115800000007096	59.80412015989533	33.0	1	1.1	0.9				
	1681	2	0.0	0.0	0.0	0.0	4	1.067800000000662	58.9865963252633	0.6899999999999998	1	1.1	0.9				
	1682	2	0.0	0.0	0.0	0.0	4	1.00795000000033	66.21293214690377	0.6899999999999998	1	1.1	0.9				
	1683	2	-11.7696274001151	0.0	0.0	0.0	4	1.0941099999998292	79.12636742381297	0.6899999999999998	1	1.1	0.9				
	1684	2	4.17243404168356	0.0695106546308845	0.0	0.0	4	0.9955300000007796	53.54696949356224	15.75	1	1.1	0.9				
	1685	2	4.31874350848887	0.07453176079317932	0.0	0.0	4	0.9975900000007835	53.45845117783873	15.75	1	1.1	0.9				
	1686	2	0.0	0.0	0.0	0.0	4	0.9960700000007556	54.323320456501165	15.75	1	1.1	0.9				
	1687	1	0.0	0.0	0.0	0.0	4	0.986645139990834	47.69378927678919	11.0	1	1.1	0.9				
	1688	1	0.0	0.0	0.0	0.0	4	0.9866451509049761	47.693788998992844	11.0	1	1.1	0.9				
	1689	1	0.0	0.0	0.0	0.0	4	1.010990010092649	47.693921420398105	15.0	1	1.1	0.9				
	1690	2	1.55235963503504	1.30523845625692	0.0	0.0	4	1.0010100000008255	51.44944173713388	13.8	1	1.1	0.9				
	1691	2	1.5344769597681198	1.2750447002085898	0.0	0.0	4	0.9952600000008217	51.539974061733936	13.8	1	1.1	0.9				
	1692	2	1.56282342983242	1.29331962912083	0.0	0.0	4	1.0017400000008283	51.26980085607691	13.8	1	1.1	0.9				
	1693	2	2.94927706166124	1.38589267322733	0.0	0.0	4	1.0054100000008381	51.448552824674486	16.0	1	1.1	0.9				
	1694	2	3.03088349851444	1.5085992015189	0.0	0.0	4	1.0118400000008263	51.8697427779871	16.0	1	1.1	0.9				
	1695	2	2.94676093480042	1.50007566219997	0.0	0.0	4	1.008770000000835	51.563116254098965	16.0	1	1.1	0.9				
	1696	2	1.20571279134895	0.6298188150809151	0.0	0.0	4	1.0173800000008273	53.08963340858966	15.75	1	1.1	0.9				
	1697	2	1.7496757498833397	0.8731592510128391	0.0	0.0	4	1.0172100000008155	53.37009719943953	11.5	1	1.1	0.9				
	1698	1	-20.060326442148266	3.53206910181539	0.0	0.0	4	1.0147893319404238	46.88475579875589	66.0	1	1.1	0.9				
	1699	2	0.0	0.0	0.0	0.0	4	1.00360000000228	50.76943817694936	11.0	1	1.1	0.9				
	1700	1	0.0	0.0	0.0	0.0	4	1.0056439060234303	46.436316793169624	11.0	1	1.1	0.9				
	1701	1	2.786533525893744	-3.94276456530718	0.0	0.0	4	1.003385117562414	58.145480076159465	33.0	1	1.1	0.9				
	1702	1	0.0	0.0	0.0	0.0	4	0.9954623647610036	55.12685150834961	11.5	1	1.1	0.9				
	1703	1	0.0	0.0	0.0	0.0	4	0.9185749902960876	55.12685150834961	11.5	1	1.1	0.9				
	1704	1	0.0	0.0	0.0	0.0	4	0.9069768212266925	55.12685150834961	11.5	1	1.1	0.9				
	1705	2	0.0	0.0	0.0	0.0	4	1.0024000000023752	62.45245006584342	0.6899999999999998	1	1.1	0.9				
	1706	2	0.0	0.0	0.0	0.0	4	1.0026700000023439	62.63506495542856	0.6899999999999998	1	1.1	0.9				
	1707	1	-75.9788742111806	0.0	0.0	0.0	4	0.9814000363939916	72.51450568141698	0.6899999999999998	1	1.1	0.9				
	1708	2	0.0	0.0	0.0	0.0	4	1.012529999999742	73.01067646920677	1.0	1	1.1	0.9				
	1709	2	0.0	0.0	0.0	0.0	4	0.9623100000026901	73.87068484563238	1.0	1	1.1	0.9				
	1710	2	0.0	0.0	0.0	0.0	4	0.9821300000028351	73.5149872055989	1.0	1	1.1	0.9				
	1711	2	0.0	0.0	0.0	0.0	4	1.0643600000005915	60.9713551913173	0.6899999999999998	1	1.1	0.9				
	1712	2	0.0	0.0	0.0	0.0	4	1.009970000000618	59.147531681104915	33.0	1	1.1	0.9				
	1713	1	0.0	0.0	0.0	0.0	4	1.0123301794754185	51.842235526656445	132.0	1	1.1	0.9				
	1714	1	0.7687972939666362	-0.11290805393992895	0.0	0.0	4	1.014302591441112	45.77381533210565	66.0	1	1.1	0.9				
	1715	2	0.0	0.0	0.0	0.0	4	1.0310000000009543	48.65961956505452	275.0	1	1.1	0.9				
	1716	2	0.0	0.0	0.0	0.0	4	1.0307200000009578	48.65961387409675	275.0	1	1.1	0.9				
	1717	1	0.0	0.0	0.0	13.242046099668398	4	0.9846320392471698	68.7853427086028	33.0	1	1.1	0.9				
	1718	1	1.7163797946842392	-3.137962159964353	0.0	0.0	4	1.0105016248053245	61.10793303839338	66.0	1	1.1	0.9				
	1719	2	0.0	0.0	0.0	0.0	4	1.051740000000748	40.05132074211367	275.0	1	1.1	0.9				
	1720	2	0.0	0.0	0.0	0.0	4	1.051740000000749	40.05131873291614	275.0	1	1.1	0.9				
	1721	1	0.0	0.0	0.0	0.0	4	0.9846307273481546	68.78542048682984	33.0	1	1.1	0.9				
	1722	1	0.0	0.0	0.0	0.0	4	1.0018353663112962	68.28729933260111	33.0	1	1.1	0.9				
	1723	1	0.0	0.0	0.0	0.0	4	1.0532571470391563	54.93679451870543	275.0	1	1.1	0.9				
	1724	1	0.0	0.0	0.0	0.0	4	1.051401323933259	56.07018494292317	275.0	1	1.1	0.9				
	1725	1	0.0	0.0	0.0	-143.46044840058298	4	1.0303992121021694	52.17241954710895	275.0	1	1.1	0.9				
	1726	1	0.0	0.0	0.0	0.0	4	1.049629753225972	53.96410687802467	275.0	1	1.1	0.9				
	1727	1	0.0	0.0	0.0	0.0	4	1.0449792088725258	53.25267012039668	275.0	1	1.1	0.9				
	1728	1	0.0	0.0	0.0	0.0	4	1.0236893575280783	52.00363587552571	275.0	1	1.1	0.9				
	1729	1	0.0	0.0	0.0	4.54360488132229	4	1.0406356828094765	48.81914210883959	275.0	1	1.1	0.9				
	1730	1	0.0	0.0	0.0	0.0	4	1.014538122559678	42.484286240434216	275.0	1	1.1	0.9				
	1731	1	0.0	0.0	0.0	0.0	4	1.0455161897475718	54.534949078437386	275.0	1	1.1	0.9				
	1732	1	0.0	0.0	0.0	0.0	4	1.0396231301874428	52.74277701374857	275.0	1	1.1	0.9				
	1733	1	0.0	0.0	0.0	0.0	4	1.04376175190629	50.665538278757936	275.0	1	1.1	0.9				
	1734	1	0.0	0.0	0.0	0.0	4	1.052448897971718	51.1502096134876	275.0	1	1.1	0.9				
	1735	1	0.0	0.0	0.0	0.0	4	1.051379095641873	56.11651208920506	275.0	1	1.1	0.9				
	1736	1	0.0	0.0	0.0	0.0	4	1.0513612068014135	56.13417532698067	275.0	1	1.1	0.9				
	1737	1	0.0	0.0	0.0	0.0	4	1.0513758612840511	56.130107196582934	275.0	1	1.1	0.9				
	1738	1	0.0	0.0	0.0	0.0	4	1.051375250020403	56.13265641265508	275.0	1	1.1	0.9				
	1739	1	0.0	0.0	0.0	0.0	4	1.0513829919305222	56.113785674993984	275.0	1	1.1	0.9				
	1740	1	19.98980572863193	8.886522006962592	0.0	-0.3184112219999998	4	1.0144319226784004	46.44248419077373	66.0	1	1.1	0.9				
	1741	1	0.0	0.0	0.0	-49.60047858466942	4	1.0408997283954533	48.65944205250718	275.0	1	1.1	0.9				
	1742	1	0.0	0.0	0.0	-1.267404975000003	4	1.0399892338959609	48.79858051501541	275.0	1	1.1	0.9				
	1743	1	0.0	0.0	0.0	0.0	4	1.002351297299288	58.08198301980136	132.0	1	1.1	0.9				
	1744	1	5.459146496424319	2.3426339661463595	0.0	0.0	4	0.9992953439675619	57.70774585995811	33.0	1	1.1	0.9				
	1745	1	0.0	0.0	0.0	-21.805389491999996	4	1.0407444905401557	49.127143977342094	275.0	1	1.1	0.9				
	1746	1	0.0	0.0	0.0	45.67799835420423	4	1.0406415901792136	48.823693941177	275.0	1	1.1	0.9				
	1747	1	0.0	0.0	0.0	100.69504581857498	4	1.0570983447217335	47.803710278434565	275.0	1	1.1	0.9				
	1748	1	4.19199413618487	0.158280233575124	0.0	0.0	4	1.0117673143353674	46.53421521456216	66.0	1	1.1	0.9				
	1749	1	0.0	0.0	0.0	-1.2206186159999999	4	1.0386994658461537	48.638497483349624	275.0	1	1.1	0.9				
	1750	1	0.0	0.0	0.0	-0.4954344480000014	4	1.038351090153592	48.57179695744318	275.0	1	1.1	0.9				
	1751	1	0.0	0.0	0.0	36.498784492996734	4	1.044727947363614	47.82300670162992	275.0	1	1.1	0.9				
	1752	1	0.0	0.0	0.0	29.097992239909747	4	1.0445780822162534	47.78014137034064	275.0	1	1.1	0.9				
	1753	1	0.0	0.0	0.0	2.685958554610665	4	1.048150538195046	47.38260706676958	275.0	1	1.1	0.9				
	1754	1	0.0	0.0	0.0	0.0	4	1.0623385032575061	45.232554967945596	275.0	1	1.1	0.9				
	1755	1	0.0	0.0	0.0	0.0	4	1.0635727488562183	44.97151471300275	275.0	1	1.1	0.9				
	1756	1	0.0	0.0	0.0	0.0	4	1.0771883067144714	40.53141574707526	275.0	1	1.1	0.9				
	1757	1	0.0	0.0	0.0	0.0	4	1.0778122711806561	40.67834059123193	275.0	1	1.1	0.9				
	1758	1	0.0	0.0	0.0	0.0	4	1.0484828706938258	47.32912510770416	275.0	1	1.1	0.9				
	1759	1	0.0	0.0	0.0	-0.7396117650000028	4	1.040232581424637	49.000912462554254	275.0	1	1.1	0.9				
	1760	1	0.0	0.0	0.0	0.0	4	1.0512805558057583	53.600662409203494	275.0	1	1.1	0.9				
	1761	1	0.0	0.0	0.0	0.0	4	1.053431515755035	47.53778072062132	275.0	1	1.1	0.9				
	1762	1	0.0	0.0	0.0	8.416422039993252	4	1.0497163650303256	47.38198326943809	275.0	1	1.1	0.9				
	1763	1	0.0	0.0	0.0	-36.698709251077936	4	1.033824671028843	48.44790389545156	275.0	1	1.1	0.9				
	1764	1	0.0	0.0	0.0	-28.164524657999973	4	1.0405918770153357	49.04212828845299	275.0	1	1.1	0.9				
	1765	1	0.0	0.0	0.0	-29.823167354799796	4	1.0624423986954834	44.93682139189058	275.0	1	1.1	0.9				
	1766	1	0.0	0.0	0.0	0.0	4	1.043382570558503	49.00944102643872	275.0	1	1.1	0.9				
	1767	1	477.39489221042714	-127.70311561561783	0.0	-31.195545157883288	4	1.050139686177605	40.05134803005886	275.0	1	1.1	0.9				
	1768	2	0.0	0.0	0.0	0.0	4	0.9844900000047887	68.7857460334497	33.0	1	1.1	0.9				
	1769	2	0.0	0.0	0.0	0.0	4	1.0020800000008054	68.28674518732252	33.0	1	1.1	0.9				
	1770	1	0.0	0.0	0.0	0.0	4	1.0522633501328764	53.244986188073604	275.0	1	1.1	0.9				
	1771	1	5.5764885174343295	2.4664500844943795	0.0	0.0	4	1.0039696795714719	51.40761397640451	132.0	1	1.1	0.9				
	1772	1	0.0	0.0	0.0	0.0	4	0.9965046800470555	51.07730885955518	132.0	1	1.1	0.9				
	1773	1	0.0	0.0	0.0	0.0	4	1.0077230024990569	54.54069988636629	132.0	1	1.1	0.9				
	1774	1	12.143518523715601	-0.6574198765127919	0.0	0.0	4	1.0075310354733735	54.48898639568803	132.0	1	1.1	0.9				
	1775	1	2.85607749935892	-10.4268151640077	0.0	0.0	4	1.0185478782759612	61.2361854393532	132.0	1	1.1	0.9				
	1776	1	0.0	0.0	0.0	0.0	4	1.0289251728632391	63.015001136191415	132.0	1	1.1	0.9				
	1777	1	0.0	0.0	0.0	0.0	4	1.0110382809907765	66.10472423072002	132.0	1	1.1	0.9				
	1778	1	1.1981462610094802	-11.4274928615361	0.0	0.0	4	1.0123242542655038	51.84227984245699	132.0	1	1.1	0.9				
	1779	1	0.0	0.0	0.0	0.0	4	1.0249294134702025	51.33023671169295	132.0	1	1.1	0.9				
	1780	1	0.0	0.0	0.0	0.0	4	1.005931450127426	51.56887997321602	132.0	1	1.1	0.9				
	1781	1	0.0	0.0	0.0	0.0	4	1.0025809558543495	64.781109015474	132.0	1	1.1	0.9				
	1782	1	0.0	0.0	0.0	0.0	4	1.0424201721359307	50.70479651358589	132.0	1	1.1	0.9				
	1783	1	0.8770092328009201	2.26961497681802	0.0	0.0	4	1.0417518217921415	50.70708149966246	132.0	1	1.1	0.9				
	1784	1	39.6890873266188	-12.842692461545699	0.0	0.0	4	0.9977748590541275	39.46033572334642	132.0	1	1.1	0.9				
	1785	1	0.0	0.0	0.0	0.0	4	1.0390887388653036	50.847292541524624	132.0	1	1.1	0.9				
	1786	1	0.0	0.0	0.0	0.0	4	1.000123935513848	52.81917383858789	132.0	1	1.1	0.9				
	1787	1	2.2540113800525696	-1.13636884448351	0.0	0.0	4	1.0008602354839844	52.709899603765635	132.0	1	1.1	0.9				
	1788	1	0.0	0.0	0.0	0.0	4	0.9964035979678775	52.69148223360916	132.0	1	1.1	0.9				
	1789	1	0.0	0.0	0.0	0.0	4	1.0174796203212948	51.44837764152002	132.0	1	1.1	0.9				
	1790	1	0.0	0.0	0.0	0.0	4	1.0205737578033078	51.326507625888375	132.0	1	1.1	0.9				
	1791	1	0.10452713104896198	-0.4642657675569411	0.0	0.0	4	1.0241151231939527	49.12179239421345	132.0	1	1.1	0.9				
	1792	1	1.2486985527869299	0.909505742653459	0.0	0.0	4	1.019724179469386	47.11580677288278	132.0	1	1.1	0.9				
	1793	1	1.1849798901025699	-0.41461733782701204	0.0	0.0	4	1.0096010744831765	43.37893613761426	132.0	1	1.1	0.9				
	1794	1	0.8780088202960789	-1.8302522195253499	0.0	0.0	4	1.0007692263968508	39.27286798532699	132.0	1	1.1	0.9				
	1795	1	0.0	0.0	0.0	0.0	4	0.9994765166260509	38.460133475073675	132.0	1	1.1	0.9				
	1796	1	0.0	0.0	0.0	0.0	4	0.996269102686397	39.31614863265652	132.0	1	1.1	0.9				
	1797	1	0.0	0.0	0.0	0.0	4	1.0474721587658702	50.60638002262862	132.0	1	1.1	0.9				
	1798	1	0.0	0.0	0.0	0.0	4	1.0136996968303917	52.10834587444815	132.0	1	1.1	0.9				
	1799	1	0.0	0.0	0.0	0.0	4	1.0240732079882024	48.28559482389444	132.0	1	1.1	0.9				
	1800	1	0.0	0.0	0.0	18.348260864149808	4	1.0114177260170982	25.48829935041941	132.0	1	1.1	0.9				
	1801	1	0.0	0.0	0.0	0.0	4	1.0107176737161265	25.4032895662301	132.0	1	1.1	0.9				
	1802	1	0.0	0.0	0.0	0.0	4	1.009205612599063	25.32636376659577	132.0	1	1.1	0.9				
	1803	1	0.0	0.0	0.0	0.0	4	1.0151975871828203	52.38776701120036	132.0	1	1.1	0.9				
	1804	1	0.0	0.0	0.0	0.0	4	1.0048219251102848	48.14148821437852	132.0	1	1.1	0.9				
	1805	1	0.0	0.0	0.0	0.0	4	1.0220058901103404	51.354732720380774	132.0	1	1.1	0.9				
	1806	1	0.0	0.0	0.0	0.0	4	1.0249009392424424	51.31160767203026	132.0	1	1.1	0.9				
	1807	1	13.818737279837716	5.09050166397347	0.0	0.0	4	1.0136777765597385	48.06820942247078	132.0	1	1.1	0.9				
	1808	1	8.828925544474181	6.241431146037209	0.0	0.0	4	1.0112298166440585	48.382896208647196	132.0	1	1.1	0.9				
	1809	1	0.0	0.0	0.0	0.0	4	1.0250709442341845	47.63962432119816	132.0	1	1.1	0.9				
	1810	1	0.0	0.0	0.0	0.0	4	1.0060852711751413	58.08730338046193	132.0	1	1.1	0.9				
	1811	1	0.0	0.0	0.0	0.0	4	1.0050396645041242	58.32659669510857	132.0	1	1.1	0.9				
	1812	1	0.0	0.0	0.0	0.0	4	1.00537103935974	63.172464007169616	132.0	1	1.1	0.9				
	1813	1	0.0	0.0	0.0	0.0	4	1.0236451243289262	70.43980472788914	132.0	1	1.1	0.9				
	1814	1	0.0	0.0	0.0	0.0	4	1.036089623400287	73.90127731375702	132.0	1	1.1	0.9				
	1815	1	0.0	0.0	0.0	0.0	4	1.0191514852132915	51.307087270455284	132.0	1	1.1	0.9				
	1816	1	0.0	0.0	0.0	0.0	4	1.023566564782811	46.6007026518833	132.0	1	1.1	0.9				
	1817	1	0.0	0.0	0.0	0.0	4	1.021809740596447	46.060469737973875	132.0	1	1.1	0.9				
	1818	1	0.0	0.0	0.0	0.0	4	1.0124521959292847	51.84137280247293	132.0	1	1.1	0.9				
	1819	1	0.0	0.0	0.0	0.0	4	1.0229913858221762	46.88286125011072	132.0	1	1.1	0.9				
	1820	1	2.2291842697188304	0.11965946782752901	0.0	0.0	4	1.0229203374208802	46.876425337747676	132.0	1	1.1	0.9				
	1821	1	0.0	0.0	0.0	0.0	4	1.0196639690707594	46.276971471745554	132.0	1	1.1	0.9				
	1822	1	0.10337501364294402	0.558034109974746	0.0	0.0	4	1.0171781224423173	45.69139930883562	132.0	1	1.1	0.9				
	1823	1	0.09832075678743418	1.36289295181204	0.0	0.0	4	1.0167495035113392	45.58212585778618	132.0	1	1.1	0.9				
	1824	1	5.07065556205446	2.8211283749231137	0.0	0.0	4	1.0156484472152745	45.183250579586755	132.0	1	1.1	0.9				
	1825	1	2.5110759851943705	1.7956627605275202	0.0	0.0	4	1.0161209261978057	44.827814361387404	132.0	1	1.1	0.9				
	1826	1	5.84056378774121	3.1336567850844905	0.0	0.0	4	1.0161850368364012	44.930818795872355	132.0	1	1.1	0.9				
	1827	1	6.761213582798842	3.9948183225933453	0.0	0.0	4	1.0181227295049555	45.434525945459306	132.0	1	1.1	0.9				
	1828	1	0.0	0.0	0.0	0.0	4	1.0312970309269218	44.50497396452554	132.0	1	1.1	0.9				
	1829	1	0.0	0.0	0.0	0.0	4	1.006151046990437	48.45992502187501	132.0	1	1.1	0.9				
	1830	1	0.0	0.0	0.0	0.0	4	1.0437998195691591	43.98701999443342	132.0	1	1.1	0.9				
	1831	1	0.0	0.0	0.0	0.0	4	1.0325675119984175	45.73050902676482	132.0	1	1.1	0.9				
...
];

%% generator data
%    bus    Pg    Qg    Qmax    Qmin    Vg    mBase    status    Pmax    Pmin    Pc1    Pc2    Qc1min    Qc1max    Qc2min    Qc2max    ramp_agc    ramp_10    ramp_30    ramp_q    apf
mpc.gen = [
	1636	27.4967476991704	-0.05508037867081836	0.21936354003956096	-0.22302106980737296	0.99352	36.2839481079485	1	36.2839481079485	0.0															
	1640	80.8969085377662	4.9189559980472835	10.099234705	-20.219328893	0.99873	121.983711870527	1	121.98371187052699	0.0															
	1641	17.264698250152	0.48405153587120964	0.718534689576132	-0.698904260466341	0.9941	21.6044311194727	1	21.604431119472704	0.0															
	1659	0.0	5.595549768745123	23.6598815813195	-8.76176854558289	0.98064	36.2619373	1	36.2619373	0.0															
	1660	5.554351866957407e-30	6.242953714148225	23.9286257288768	-8.54390567094088	0.98165	37.22684	1	37.22684	0.0															
	1661	0.0	2.3756007809817303	24.5150344303111	-8.64804537352174	0.97347	36.524171100000004	1	36.524171100000004	0.0															
	1662	-1.2180002265480214e-30	7.719988629413612	24.0367796063656	-8.63783673103899	0.98277	37.0209491	1	37.0209491	0.0															
	1665	0.0	2.7409013986377846	23.784596585494	-8.60433455165476	0.97606	37.2833587994021	1	37.2833587994021	0.0															
	1666	0.0	-2.5963988354493823	23.8187134763575	-8.44806214440614	0.96603	37.528516240641	1	37.528516240641	0.0															
	1667	0.0	3.0274554906904387	23.6825894860667	-8.464857105910783	0.9779	36.3901201120326	1	36.3901201120326	0.0															
	1668	0.0	2.590273977205902	24.0833969847299	-8.506062235496941	0.97693	36.1408798766029	1	36.1408798766029	0.0															
	1683	70.7750319602899	0.18307445378008014	5.006546884034001	-15.006561913253	1.09411	89.9570863413974	1	89.95708634139741	0.0															
	1684	127.264972509581	9.37177761867338	88.72322266073901	-71.3420374208596	0.99553	198.828031233628	1	198.828031233628	0.0															
	1685	135.210093454782	13.384080809919913	85.95480287179818	-71.3987163781654	0.99759	194.91053826953302	1	194.91053826953302	0.0															
	1686	137.62957877398497	10.55024934970991	88.4571553576738	-70.95612051626668	0.99607	203.925937385531	1	203.92593738553103	0.0															
	1690	38.4946844491548	17.041173108142157	61.223826457420394	0.0	1.00101	162.35489527462101	1	162.35489527462101	0.0															
	1691	37.3084137147125	11.706806258102478	61.1169451517053	0.0	0.99526	159.27815700299098	1	159.278157002991	0.0															
	1692	38.770804742195004	18.528873459599147	61.4413591394201	0.0	1.00174	159.933895852882	1	159.933895852882	0.0															
	1693	55.8750720689865	12.67444525593053	102.60551564220802	-43.5886791613652	1.00541	266.94065888878	1	266.94065888878	0.0															
	1694	61.3134457642919	19.91655430137253	102.179665919766	-44.6975406577112	1.01184	272.704311920097	1	272.704311920097	0.0															
	1695	58.176223566194906	17.116084755081367	105.959633671166	-43.971128094615395	1.00877	262.876889418112	1	262.876889418112	0.0															
	1696	78.7966765485445	6.207553729265851	63.159811665549	-37.492361415046396	1.01738	175.50502469390602	1	175.50502469390602	0.0															
	1697	49.6087914977608	5.384807564590281	35.972756975169595	-17.9003871763423	1.01721	88.5158615344204	1	88.51586153442041	0.0															
	1699	38.6113984149723	-0.990915362559084	20.5895005164901	-16.818697669729602	1.0036	50.093021374605605	1	50.093021374605605	0.0															
	1705	22.8188918386586	-5.833226024159721	7.44299983186647	-7.66421099454165	1.0024	34.96740921	1	34.96740921	0.0															
	1706	17.313522312438597	-4.25519474120476	5.21209918666631	-5.25276126880199	1.00267	100.7653224	1	100.7653224	0.0															
	1708	63.2268506484948	6.223661581030333	11.909516936000001	-21.980508199000003	1.01253	77.61118044	1	77.61118044	0.0															
	1709	93.2166602577516	-26.504751957542023	31.408483860828003	-31.140036932029798	0.96231	109.9329537	1	109.9329537	0.0															
	1710	38.3189882633566	-2.3365007372604296	6.17553515918693	-6.1068309832802	0.98213	50.331527630000004	1	50.331527630000004	0.0															
	986	0.0	31.193599092145462	71.1153841185151	-242.91775830730305	1.01103	2.7441684688255203	1	274.416846882552	0.0															
	1642	0.0	3.4166035005724162	12.619560245610801	-12.739241781458299	0.99493	0.128727573506534	1	12.8727573506534	0.0															
	1643	18.433384315473	0.13181939209149374	5.003289761013999	-15.003256367266998	1.03603	0.28771634400000007	1	28.771634400000007	0.0															
	1646	22.2724559517577	0.07836765432180871	5.003171958066	-5.003231620503	1.03282	0.252659386300459	1	25.2659386300459	0.0															
	1651	27.8450044785054	-4.916245909318206	5.68187583773397	-5.77886366493814	1.02185	0.5888280384633691	1	58.882803846336905	0.0															
	1652	39.84141941817451	-4.974067812695352	9.61592576522639	-9.714125176503629	1.01703	0.988983168276027	1	98.8983168276027	0.0															
	1653	93.252989115914	-4.419968789812042	5.85493965188798	-5.8212950365354805	1.02561	1.33284632191574	1	133.284632191574	0.0															
	1654	95.028833758947	-7.2060621190483145	9.81219741371961	-9.815883409181842	1.01263	1.1176126014	1	111.76126014	0.0															
	1655	78.7630426681855	-10.086086638344087	11.903825069787501	-11.7460598581636	1.01358	1.01924695797265	1	101.924695797265	0.0															
	1656	90.1852626517937	-7.865853627131282	9.40731875441854	-9.46705987107202	1.01544	1.10546755904797	1	110.546755904797	0.0															
	1658	15.112851645587503	-0.04269079274216014	0	0	0.99318	0.6130266438237391	1	61.302664382373905	0.0															
	1663	0.0	-21.438732375097285	200.0	-200.0	1.01428437	9.0	1	900.0	0.0															
	1669	0.0	3.7441594267800977	24.432417620000003	-8.435284561	0.97427	0.3639012011000001	1	36.39012011000001	0.0															
	1679	76.44171057008631	-0.0360933538726691	5.007621059779999	-5.007698643602	1.06733	0.9103895200554982	1	91.03895200554982	0.0															
	1680	0.0	3.665839719334611	12.842282363399901	-13.1311513773166	1.01158	0.12825872706156197	1	12.825872706156197	0.0															
	1681	49.841511789606905	-0.053592305874554325	0	0	1.0678	0.5672571545146641	1	56.72571545146641	0.0															
	1682	57.700440910235805	0.13033122508518288	0	0	1.00795	1.0450412263094198	1	104.50412263094198	0.0															
	1711	55.65657678132201	0.5381856436003416	0	0	1.06436	0.7619784032539471	1	76.19784032539471	0.0															
	1712	0.0	6.720554443943893	12.643409589305499	-12.6954606240615	1.00997	0.108895174942445	1	10.8895174942445	0.0															
	1715	0.0	-33.29877085500065	86.7553116139025	-84.31013214215642	1.031	1.6993349549174301	1	169.933495491743	0.0															
	1716	0.0	-32.951723995691765	84.8030855059624	-87.06072877906259	1.031	1.74399613115937	1	174.399613115937	0.0															
	1719	0.0	5.444846779904315	84.6204846538603	-55.3401140674017	1.05174	1.3909524032296594	1	139.09524032296594	0.0															
	1720	0.0	5.591113452400666	85.06113397330051	-56.77976884059609	1.05174	1.4003431122126098	1	140.03431122126096	0.0															
	1768	0.0	-0.5671674083555444	12.8972769744694	-12.9802056770772	0.98449	0.12966947583295402	1	12.966947583295402	0.0															
	1769	0.0	0.9417893648129023	12.8710975083523	-12.779703919217	1.00208	0.131987497480586	1	13.1987497480586	0.0															
	1983	0.0	0.5890432183499869	8.78377217855305	-8.54403115119785	1.01394	0.04312644164264199	1	4.312644164264199	0.0															
	1984	-3.644822419752844e-30	-5.342716624519554	12.8995985660702	-12.630675392690998	0.95662	0.129645442360081	1	12.964544236008098	0.0															
	1987	-3.2327035043093564e-31	-9.302794851621169	15.14894165	-25.305911929999997	1.07258	0.19169106867	1	19.169106867	0.0															
];

%% branch data
%    f_bus    t_bus    r    x    b    rateA    rateB    rateC    ratio    angle    status    angmin    angmax
mpc.branch = [
	1635	1726	0.00121635981663102	0.008079623521008343	0.0356472378939688	10000	10000	10000	0	0	1	-59.99999999999999	59.99999999999999	-81.52986412496574	30.308927549138915	81.61451001189228	-33.67968605333131				
	1635	1760	0.0010558987892532303	0.007962892097437013	0.0320607515322417	10000	10000	10000	0	0	1	-59.99999999999999	59.99999999999999	0.00014050330202695742	-3.5425359081071695	-0.00011051908034363615	-0.00011051908214162283				
	1635	1770	0.0010767531336243303	0.008114202816397324	0.0315267035310343	10000	10000	10000	0	0	1	-59.99999999999999	59.99999999999999	81.52972362166358	-26.766391641033344	-81.45884372300705	23.813412387142414				
	1663	1714	0.0009641272206259892	0.00630018522335216	0.00018156911265389142	10000	10000	10000	0	0	1	-59.99999999999999	59.99999999999999	-3.034085730268794	0.16190594938200994	3.0341722772328783	-0.18002007134476336				
	1664	1982	0.12577164157204804	0.2601498143021829	0.00023662400785088493	10000	10000	10000	0	0	1	-59.99999999999999	59.99999999999999	-3.861657926911085	-1.170975502265699	3.8826494697783396	1.1911592412428853				
	1664	1982	0.101714305058168	0.20412710145665292	0.00017817033497011296	10000	10000	10000	0	0	1	-59.99999999999999	59.99999999999999	-4.909910857986077	-1.4191218978101185	4.937162586674304	1.4563166855272949				
	1670	1852	0.0008160430874023591	0.005236278475038708	0.00021842069039421983	10000	10000	10000	0	0	1	-59.99999999999999	59.99999999999999	-0.00018858141878439622	9.425915392787706	0.0008882150334713415	-9.444104948252393				
	1698	1936	0.0157921637373203	0.047292497068477275	0.0010330626706592698	10000	10000	10000	0	0	1	-59.99999999999999	59.99999999999999	8.833985283610255	-2.568366675160285	-8.821047668898261	2.500746370316045				
	1698	1937	0.0283884083325136	0.08234669005610508	0.001579888965338469	10000	10000	10000	0	0	1	-59.99999999999999	59.99999999999999	11.226341158537913	-0.9637024266545009	-11.191383663070422	0.9027889494512504				
	1713	1778	0.0009833114306903438	0.007441135997185476	0.001573157961786719	10000	10000	10000	0	0	1	-59.99999999999999	59.99999999999999	-9.059864403831996e-13	-8.737193978839049e-13	6.234818887844613e-8	-0.1612177619980815				
	1714	1919	0.00404388331923634	0.023120737642906588	0.00038280806556343993	10000	10000	10000	0	0	1	-59.99999999999999	59.99999999999999	2.096564860764904	-0.16697944025782885	-2.0963912333641805	0.12859041832389106				
	1714	1932	0.0037570568781299506	0.022538935475214395	0.00039215188045054703	10000	10000	10000	0	0	1	-59.99999999999999	59.99999999999999	-7.121585684570575	1.4287748920195225	7.123514460386882	-1.4575466915202822				
	1721	1768	0.0009882484366185963	0.0248588270822074	0.00020308380002155904	10000	10000	10000	0	0	1	-59.99999999999999	59.99999999999999	3.1671001456736467e-6	0.5475609616896572	-3.6324296435324976e-13	-0.5671674083560442				
	1722	1769	0.0010200318328104903	0.02575328950537369	0.00020114301006309704	10000	10000	10000	0	0	1	-59.99999999999999	59.99999999999999	9.204093462042429e-6	-0.9617501174011808	-4.1876224710080123e-13	0.9417893648118821				
	1723	1724	0.0028787597681824103	0.020755068172023203	0.0846743289567996	10000	10000	10000	0	0	1	-59.99999999999999	59.99999999999999	-102.12195741980754	19.929413752046436	102.40832394757355	-27.241605200081757				
	1723	1734	0.00569926819080021	0.040610588513786905	0.16970718013670993	10000	10000	10000	0	0	1	-59.99999999999999	59.99999999999999	177.889230229244	-26.3230887311011	-176.24880563040207	19.200029619544217				
	1724	1725	0.0075642930104155084	0.052401663179700686	0.22587887806545387	10000	10000	10000	0	0	1	-59.99999999999999	59.99999999999999	144.3020982973396	13.606151072554063	-142.8306424961353	-27.888502159877937				
	1725	1726	0.009911532846807968	0.06768463418456351	0.28992914642906986	10000	10000	10000	0	0	1	-59.99999999999999	59.99999999999999	-52.99597301380692	-36.12511634415528	53.29829474949006	6.827343795013424				
	1725	1728	0.00482450667030178	0.0342638862831891	0.125588125938419	10000	10000	10000	0	0	1	-59.99999999999999	59.99999999999999	11.680171800247052	11.879931039690947	-11.658341582759935	-24.972319340917824				
	1725	1728	0.00438941575843841	0.036926092521846324	0.12410093419463396	10000	10000	10000	0	0	1	-59.99999999999999	59.99999999999999	10.493726620988927	10.900388015650323	-10.47652969826038	-23.846272347723346				
	1725	1730	0.016129534811005004	0.11754966032754302	0.5937059324660198	10000	10000	10000	0	0	1	-59.99999999999999	59.99999999999999	150.47245743919268	-25.578283112497974	-147.0273647336259	-11.386647795337684				
	1725	1732	0.007044682728485201	0.04690742485017702	0.16098770010784097	10000	10000	10000	0	0	1	-59.99999999999999	59.99999999999999	-25.19083513688901	-24.911698674372126	25.25071116635734	8.06426705541687				
	1725	1733	0.012086696841828502	0.08116277604341511	0.302281295160344	10000	10000	10000	0	0	1	-59.99999999999999	59.99999999999999	31.685508837491067	-37.271634779330135	-31.51993257389792	5.87069906174689				
	1727	1731	0.0021515339179057594	0.015096677057286302	0.060315699451113994	10000	10000	10000	0	0	1	-59.99999999999999	59.99999999999999	-158.99203611693463	17.461252820795767	159.4985853922374	-20.496694865214113				
	1727	1732	0.0068185841011572604	0.043763672148131316	0.16778123449635698	10000	10000	10000	0	0	1	-59.99999999999999	59.99999999999999	23.528041323763265	0.06094539855051109	-23.488165202728002	-18.032743619069176				
	1727	1759	0.008486581838986368	0.0591167622186216	0.21110872427025795	10000	10000	10000	0	0	1	-59.99999999999999	59.99999999999999	135.46399479316798	-17.52219821934507	-134.03505065291665	4.527885635249448				
	1733	1766	0.008198957411544404	0.059799845231875835	0.223533405889291	10000	10000	10000	0	0	1	-59.99999999999999	59.99999999999999	51.85203882273218	-17.863027461228008	-51.647262338936386	-4.987163211352333				
	1734	1741	0.011342957698926293	0.0829178522879723	0.30918504982031997	10000	10000	10000	0	0	1	-59.99999999999999	59.99999999999999	58.49771979551659	-9.218583919273405	-58.14089011993999	-22.046056649710945				
	1734	1747	0.008120823799772189	0.058030028108758784	0.23618622344575085	10000	10000	10000	0	0	1	-59.99999999999999	59.99999999999999	109.05584065566234	-33.50516378912128	-108.15329720818457	13.677621687804834				
	1734	1770	0.00416778351608664	0.029063220222876912	0.11408775132283598	10000	10000	10000	0	0	1	-59.99999999999999	59.99999999999999	-136.02478414187445	16.406401293067393	136.74042392333027	-24.050714798816916				
	1741	1747	0.0014987872173311202	0.015682613099087007	0.11368355099406298	10000	10000	10000	0	0	1	-59.99999999999999	59.99999999999999	93.72985716145709	-121.848719367852	-93.42318265917288	112.5471467861793				
	1741	1751	0.00169214800585993	0.013043018706562002	0.04911470328886529	10000	10000	10000	0	0	1	-59.99999999999999	59.99999999999999	115.91130176102946	-47.36131429208547	-115.67026291779743	43.8781844574948				
	1741	1766	0.0024126414224738294	0.017409272619009007	0.06843723498629678	10000	10000	10000	0	0	1	-59.99999999999999	59.99999999999999	-39.39233226180583	-12.976867114346998	39.42879953406659	5.807317289530186				
	1743	1811	0.027983018004521697	0.08568530382659285	0.0206004698127508	10000	10000	10000	0	0	1	-59.99999999999999	59.99999999999999	-5.460577294842266	-2.3857149483168665	5.46939037816752	0.33739645455989326				
	1747	1761	0.00108930966525106	0.011134191204030102	0.08211270142505037	10000	10000	10000	0	0	1	-59.99999999999999	59.99999999999999	49.3640425330593	25.5038166039247	-49.33146123519644	-34.3147597282856				
	1747	1765	0.0046951742046140105	0.03592640249154071	0.13426919288645697	10000	10000	10000	0	0	1	-59.99999999999999	59.99999999999999	152.21243733429654	-39.206210283547854	-151.19673712348433	31.89807001204597				
	1748	1850	0.05159910641696771	0.08820023919096218	0.0014179646809771695	10000	10000	10000	0	0	1	-59.99999999999999	59.99999999999999	-4.727185167897874	-2.307970095683034	4.740967770682714	2.1857485583471803				
	1748	1954	0.050358361751236924	0.08837769864981529	0.0013986184096988301	10000	10000	10000	0	0	1	-59.99999999999999	59.99999999999999	0.5351910317132345	2.1496898621081337	-0.5326228709282241	-2.288043716322968				
	1749	1750	0.000704185186196119	0.005053455188958912	0.019907680901549797	10000	10000	10000	0	0	1	-59.99999999999999	59.99999999999999	25.353281076194378	2.568233749483649	-25.348999075486233	-4.684617391567623				
	1753	1758	0.000811953813731671	0.004959672432672231	0.02637627259396018	10000	10000	10000	0	0	1	-59.99999999999999	59.99999999999999	19.02503212863635	-11.577168212372442	-19.021598908277323	8.699471618644168				
	1753	1762	0.0005919839259702711	0.0049304799922090005	0.016810309570804198	10000	10000	10000	0	0	1	-59.99999999999999	59.99999999999999	-3.700375485562392	-33.76638651611418	3.7062615638499232	31.965835648701983				
	1754	1767	0.0127404887224417	0.0922430098585878	0.341993802185906	10000	10000	10000	0	0	1	-59.99999999999999	59.99999999999999	109.74698093938753	-15.4655421082223	-108.38561552355455	-12.83347622479368				
	1755	1767	0.012086122339812096	0.09069230146761048	0.3420542508968149	10000	10000	10000	0	0	1	-59.99999999999999	59.99999999999999	106.4389093291466	-13.23968531766529	-105.22445664373916	-15.85438253674027				
	1756	1765	0.010984509255017596	0.07852142808281808	0.3052686689120439	10000	10000	10000	0	0	1	-59.99999999999999	59.99999999999999	-106.43988238617706	21.71458117543497	107.6595497244896	-47.935745440345045				
	1757	1765	0.0101728375011943	0.07358775857014584	0.301238209775439	10000	10000	10000	0	0	1	-59.99999999999999	59.99999999999999	-109.74808476429958	24.482366196406232	110.95715803581933	-50.234983807114006				
	1758	1762	0.0007872228344902403	0.005966363672818994	0.025280655939169207	10000	10000	10000	0	0	1	-59.99999999999999	59.99999999999999	-19.537085487674354	-20.480411554558675	19.54242874052928	17.73849282456884				
	1761	1762	0.0010824778260011198	0.011383884498858798	0.08425973751122967	10000	10000	10000	0	0	1	-59.99999999999999	59.99999999999999	29.419889441938217	26.94211043863967	-29.401695427869555	-36.06830914905581				
	1762	1765	0.006963829658925529	0.0568899062760361	0.3049658093831548	10000	10000	10000	0	0	1	-59.99999999999999	59.99999999999999	79.78501747614912	-48.26535939074781	-79.3201584755068	18.048768452302905				
	1771	1780	0.01696046467429031	0.0564665572941536	0.013105686320662505	10000	10000	10000	0	0	1	-59.99999999999999	59.99999999999999	-5.576488517434078	-2.4664500844941624	5.582269919197272	1.16212001086847				
	1772	1837	0.00132011743273213	0.0028063972381148486	0.000523066501801833	10000	10000	10000	0	0	1	-59.99999999999999	59.99999999999999	-0.10207890309582857	2.511987312309835	0.10216467099847526	-2.5637429583222873				
	1773	1774	0.0010289626197423796	0.005139002300566057	0.00022256130226135245	10000	10000	10000	0	0	1	-59.99999999999999	59.99999999999999	17.870953227854137	0.18285599988416765	-17.867716814764613	-0.18928913219440277				
	1773	1775	0.05704442955739799	0.21591204389091592	0.0402931422403548	10000	10000	10000	0	0	1	-59.99999999999999	59.99999999999999	-52.25690107855251	9.950417149544563	53.87171582319571	-7.974356213556508				
	1773	1780	0.04545506627255489	0.14116993353359597	0.025720602819195495	10000	10000	10000	0	0	1	-59.99999999999999	59.99999999999999	34.38594785069679	-10.133273149426499	-33.8218181770502	9.277990035121471				
	1775	1776	0.034031440897696615	0.07144023763314679	0.015416169641333594	10000	10000	10000	0	0	1	-59.99999999999999	59.99999999999999	-42.584470156493296	5.397634520705849	43.19193585137144	-5.738129195675021				
	1775	1781	0.08689898167401548	0.34720090332264086	0.06612555766403669	10000	10000	10000	0	0	1	-59.99999999999999	59.99999999999999	-15.877766730723486	5.790702673584553	16.16015331570533	-11.415870822870328				
	1777	1781	0.039826014236401905	0.08214770786591107	0.016983569635964004	10000	10000	10000	0	0	1	-59.99999999999999	59.99999999999999	27.293890915769513	-3.362220648864969	-27.00122361553777	2.2442987019770793				
	1778	1785	0.16925694638672292	0.3361417228742498	0.06477366427690713	10000	10000	10000	0	0	1	-59.99999999999999	59.99999999999999	1.1161687413228303	-11.89423312712836	-0.9926607829658027	5.323690437493653				
	1778	1818	0.0032557567488662913	0.02599207385358589	0.009723597232113591	10000	10000	10000	0	0	1	-59.99999999999999	59.99999999999999	7.88850904060584e-6	-0.9965375983822568	9.419548474554063e-14	4.929772410601496e-13				
	1780	1837	0.003951626576185231	0.019989167923483993	0.004401288372548299	10000	10000	10000	0	0	1	-59.99999999999999	59.99999999999999	50.3536185831301	37.797966787385135	-50.198151844748296	-37.45272433245283				
	1780	1838	0.0038621894127689304	0.020514517010596988	0.004278653873985629	10000	10000	10000	0	0	1	-59.99999999999999	59.99999999999999	1.7888043456150329e-6	-0.4329656660454452	-2.1856973696221527e-13	-5.1393622430701e-13				
	1782	1783	0.01524316672569141	0.02889797150370662	0.005950132749415933	10000	10000	10000	0	0	1	-59.99999999999999	59.99999999999999	0.8776495766576197	1.6246782384987608	-0.8770092328005695	-2.2696149768178073				
	1782	1785	0.04480357168452811	0.09222894781278908	0.018078281441163288	10000	10000	10000	0	0	1	-59.99999999999999	59.99999999999999	-0.8818162828893444	3.215138917402876	0.8894009855855617	-5.1577156037993115				
	1782	1797	0.0769454231047071	0.2171647465718629	0.044431661344785205	10000	10000	10000	0	0	1	-59.99999999999999	59.99999999999999	0.004166706232294065	-4.839817155900637	-4.85722573273506e-15	-3.46077333457373e-14				
	1784	1796	0.003247917742948051	0.008378906285017728	0.0018105004735384106	10000	10000	10000	0	0	1	-59.99999999999999	59.99999999999999	32.0107909742566	5.469903035309074	-31.97635271492968	-5.561033390981039				
	1784	1796	0.0029675945377070517	0.00820834920182824	0.0018586657993588604	10000	10000	10000	0	0	1	-59.99999999999999	59.99999999999999	32.817588855844456	6.384549829422996	-32.78423478857456	-6.477053978881246				
	1786	1787	0.021958453317265994	0.06666939479294227	0.014257564868331	10000	10000	10000	0	0	1	-59.99999999999999	59.99999999999999	2.255875698469742	-2.5578686875185888	-2.2540113800518764	1.1363688444831543				
	1786	1788	0.006858307099929081	0.015435643918514291	0.0034213354882970393	10000	10000	10000	0	0	1	-59.99999999999999	59.99999999999999	20.966449038875847	14.634427712759434	-20.921277989633804	-14.87371124018516				
	1786	1798	0.024537118123308808	0.08649173785603417	0.020177007507470892	10000	10000	10000	0	0	1	-59.99999999999999	59.99999999999999	9.360657790477786	-19.272415451334666	-9.257340276583534	17.590820873545752				
	1786	1810	0.04661342287408609	0.1426997226847709	0.025947368583506894	10000	10000	10000	0	0	1	-59.99999999999999	59.99999999999999	-58.85410569303726	16.72767454544638	60.61971987500496	-13.93341833167555				
	1789	1798	0.012267185435423203	0.040431030419412976	0.009415765742864459	10000	10000	10000	0	0	1	-59.99999999999999	59.99999999999999	-24.21710433011696	16.542041993087846	24.320960046490818	-17.17091369646793				
	1789	1815	0.0223065131035992	0.07231457625435429	0.016961357498219705	10000	10000	10000	0	0	1	-59.99999999999999	59.99999999999999	2.567553561478168	-4.0179602861870345	-2.56400873704649	2.2706148606153893				
	1790	1805	0.0109605972856656	0.03804070933883079	0.007901745569063352	10000	10000	10000	0	0	1	-59.99999999999999	59.99999999999999	-2.2692671808323253	-3.5995298783618304	2.2708785932930367	2.780944104613804				
	1790	1815	0.009180379132468249	0.031501950833164184	0.006665000168010589	10000	10000	10000	0	0	1	-59.99999999999999	59.99999999999999	2.269267180830144	3.599529878361906	-2.267440441429865	-4.286501704686174				
	1791	1799	0.004422898853253569	0.014835605277544793	0.003278268316574388	10000	10000	10000	0	0	1	-59.99999999999999	59.99999999999999	95.0323288566697	-27.461449379922144	-94.62007519459591	28.50044567580612				
	1791	1806	0.011566739838155697	0.03871216348633358	0.007651264750588685	10000	10000	10000	0	0	1	-59.99999999999999	59.99999999999999	-95.13685598771873	27.925715147478037	96.22353474666512	-25.091852088360135				
	1792	1793	0.014918926825001809	0.0531807873239042	0.011303189755585002	10000	10000	10000	0	0	1	-59.99999999999999	59.99999999999999	123.08327737294749	-11.589883883367358	-120.89235699358166	18.236015491940925				
	1792	1799	0.00485352673521265	0.016722657739310493	0.0035968554669991108	10000	10000	10000	0	0	1	-59.99999999999999	59.99999999999999	-124.33197592573397	10.680378140712493	125.05902377611417	-8.550973055104722				
	1793	1794	0.0179332064768951	0.05785763096215668	0.011996593546969797	10000	10000	10000	0	0	1	-59.99999999999999	59.99999999999999	119.7073771034794	-17.821398154113773	-117.13410862903457	24.91133921566125				
	1794	1795	0.003474531492860991	0.011517652309536896	0.002319351489767429	10000	10000	10000	0	0	1	-59.99999999999999	59.99999999999999	116.25609980873743	-23.081086996139184	-115.76892567663346	24.464018166411357				
	1795	1799	0.05851995475306181	0.14348861267685897	0.029190969554781905	10000	10000	10000	0	0	1	-59.99999999999999	59.99999999999999	-106.69953467399482	35.387955331107975	114.16420435039237	-20.073567877784278				
	1795	1800	0.039110158940236985	0.19382369824033197	0.03532328083072789	10000	10000	10000	0	0	1	-59.99999999999999	59.99999999999999	113.87990026259416	-17.59119106743246	-108.704463672498	39.6687869663035				
	1795	1800	0.09898993121275682	0.18776614488605892	0.04225371733708309	10000	10000	10000	0	0	1	-59.99999999999999	59.99999999999999	97.61242427713437	-46.188760008544406	-86.24531158441033	63.478454048618595				
	1798	1803	0.009943732052803043	0.0333333779147598	0.0076887984114941185	10000	10000	10000	0	0	1	-59.99999999999999	59.99999999999999	-15.063619769575197	-0.4199071771390478	15.085577661976956	-0.2977449028671558				
	1800	1801	0.001663677633143959	0.007879876548349856	0.0015690876154601594	10000	10000	10000	0	0	1	-59.99999999999999	59.99999999999999	20.245717377759874	4.645033830632929	-20.238688105891654	-4.772141483823635				
	1800	1802	0.008491940523758531	0.016582461825758198	0.00294519661143422	10000	10000	10000	0	0	1	-59.99999999999999	59.99999999999999	19.26664870683814	3.499812416423251	-19.234727774877157	-3.7381047910550054				
	1804	1808	0.013285283282711205	0.046065253692548686	0.018967511533498797	10000	10000	10000	0	0	1	-59.99999999999999	59.99999999999999	-12.296525830704349	-11.369170748792426	12.330685072389654	9.560275187543324				
	1804	1829	0.012758874277777	0.04552513057744356	0.00960243668046221	10000	10000	10000	0	0	1	-59.99999999999999	59.99999999999999	-12.19694086712501	0.03423768847585565	12.215773959351532	-0.9378487736887854				
	1805	1806	0.0029535169547841	0.00951834221512824	0.001902214292805639	10000	10000	10000	0	0	1	-59.99999999999999	59.99999999999999	-1.2420987085562136	-30.795601651530923	1.2687865887233447	30.682359926935398				
	1805	1808	0.03640549471192532	0.12274276098469307	0.029151673582736397	10000	10000	10000	0	0	1	-59.99999999999999	59.99999999999999	42.87815433043744	-4.135143171066784	-42.23496061614324	3.2907550069690967				
	1805	1811	0.09085458520963793	0.2033329293160049	0.03952559263631699	10000	10000	10000	0	0	1	-59.99999999999999	59.99999999999999	-46.54499361500981	30.996225010499707	49.38017993866715	-28.71153219302934				
	1807	1808	0.0067930620894497305	0.020634344717340995	0.004545259506547358	10000	10000	10000	0	0	1	-59.99999999999999	59.99999999999999	-21.022214277046388	18.787946096598557	21.0753499992789	-19.09246134054761				
	1807	1809	0.016496500077042706	0.054521201772452295	0.01108706704624	10000	10000	10000	0	0	1	-59.99999999999999	59.99999999999999	7.2034769972075505	-23.87844776057274	-7.107923046272871	23.042135306160915				
	1809	1819	0.007844044910408562	0.04116509947366499	0.009036214529335498	10000	10000	10000	0	0	1	-59.99999999999999	59.99999999999999	33.45926269500197	-1.4498417150485658	-33.37561891607752	0.9412250663858139				
	1810	1811	0.034267142212949714	0.106646995450065	0.020598703856911503	10000	10000	10000	0	0	1	-59.99999999999999	59.99999999999999	-3.2995679086669583	1.012360538263238	3.3046831042877223	-3.079291516511276				
	1811	1812	0.0441534425707534	0.10422737331350801	0.021346413987316196	10000	10000	10000	0	0	1	-59.99999999999999	59.99999999999999	-68.30473990731329	31.003299208023545	70.79401639916263	-27.2841056277577				
	1812	1813	0.0740122877125814	0.15013299436677197	0.0294551712381653	10000	10000	10000	0	0	1	-59.99999999999999	59.99999999999999	-72.4293495035554	27.486880229837418	76.88543795631489	-21.479611496514128				
	1813	1814	0.032350736129591204	0.07247817347608178	0.014031324168216399	10000	10000	10000	0	0	1	-59.99999999999999	59.99999999999999	-79.22160001595246	19.719204021192095	81.2884059561962	-16.57701273411607				
	1816	1817	0.00907692660290282	0.045861641036239485	0.00983149650335312	10000	10000	10000	0	0	1	-59.99999999999999	59.99999999999999	21.458022543972145	-0.7396306489743043	-21.41812615227009	-0.08705895510299766				
	1817	1827	0.008248982617910953	0.0430277959540486	0.008740466211140148	10000	10000	10000	0	0	1	-59.99999999999999	59.99999999999999	27.12284075572251	3.2439811221856187	-27.063638325772477	-3.844474205434895				
	1819	1820	0.0030738165360689215	0.00537932811007835	0.000812847891263664	10000	10000	10000	0	0	1	-59.99999999999999	59.99999999999999	2.2293304221018224	0.034855692850085766	-2.229184269718116	-0.1196594678319644				
	1819	1821	0.011820628670416802	0.03517812017938119	0.006732222788315272	10000	10000	10000	0	0	1	-59.99999999999999	59.99999999999999	31.14628849397423	-0.9760807592353635	-31.036670107928078	0.6000575140813189				
	1821	1822	0.016878685435429194	0.049248587203212076	0.008115758832022549	10000	10000	10000	0	0	1	-59.99999999999999	59.99999999999999	20.873243593174102	-2.318879385516416	-20.80192929777393	1.6852073767546951				
	1822	1823	0.00308011913259048	0.009206594501826907	0.0014379570237640295	10000	10000	10000	0	0	1	-59.99999999999999	59.99999999999999	20.698554284131024	-2.24324148672964	-20.685660041476087	2.133067137734211				
	1823	1824	0.0107677948723082	0.033231868633646494	0.005209967390131198	10000	10000	10000	0	0	1	-59.99999999999999	59.99999999999999	20.587339284689218	-3.4959600895410685	-20.54210803880235	3.0975411845082417				
	1824	1825	0.010401466834466001	0.03768915648579599	0.008304148459602149	10000	10000	10000	0	0	1	-59.99999999999999	59.99999999999999	15.47145247674779	-5.918669559431986	-15.444276661139453	5.16013348324402				
	1825	1826	0.0024612860071286605	0.0124739549580496	0.002677331425026062	10000	10000	10000	0	0	1	-59.99999999999999	59.99999999999999	-14.42048846233866	2.198282171245519	14.425575740492242	-2.448951896474166				
	1825	1828	0.022111748169316	0.07690442935887719	0.015061100977063207	10000	10000	10000	0	0	1	-59.99999999999999	59.99999999999999	1.7722255952317467	-21.317300029181798	-1.6812039609242269	20.055412233895044				
	1826	1827	0.009122197201475498	0.044960339212901865	0.009799769098358226	10000	10000	10000	0	0	1	-59.99999999999999	59.99999999999999	-20.26613952823371	-0.6847048886087601	20.302424742973855	-0.15034411715815904				
	1828	1830	0.053214058006499004	0.28081148073201095	0.05857529328584668	10000	10000	10000	0	0	1	-59.99999999999999	59.99999999999999	2.5081265696062354	-8.166309865082708	-2.49221255511692	1.9443897047173067				
	1830	1832	0.045637446269765514	0.2357974373093811	0.055425774615258015	10000	10000	10000	0	0	1	-59.99999999999999	59.99999999999999	-8.678595153844118	-6.819729227614417	8.716193901175531	0.9023171304470099				
	1831	1833	0.006941831848025321	0.035083815124891685	0.00827778966028243	10000	10000	10000	0	0	1	-59.99999999999999	59.99999999999999	-52.44370091722198	54.63984511499015	52.820305803964075	-53.60637368871154				
	1831	1835	0.012122804105482502	0.08455798356806386	0.026076412697941993	10000	10000	10000	0	0	1	-59.99999999999999	59.99999999999999	-194.88160218484856	58.18785384881004	199.60344047350503	-28.00002789779233				
	1831	1839	0.016553907729629405	0.08718727949283078	0.019062274245685015	10000	10000	10000	0	0	1	-59.99999999999999	59.99999999999999	-17.103882289139058	-10.902486624431205	17.164477932946394	9.167121712790703				
	1832	1839	0.026500438151657604	0.14056576330112794	0.030426527456520108	10000	10000	10000	0	0	1	-59.99999999999999	59.99999999999999	-17.739299989438237	11.372267475135969	17.85460393828937	-14.115526578227646				
	1833	1834	0.017755869111511904	0.040034507184708495	0.007788723428547379	10000	10000	10000	0	0	1	-59.99999999999999	59.99999999999999	-66.88202119433377	49.97954413801134	68.0842910152748	-48.06934684014886				
	1834	1835	0.04499098445288839	0.09869179960233616	0.020875666691637606	10000	10000	10000	0	0	1	-59.99999999999999	59.99999999999999	-94.9408860805009	37.78436610053368	99.5814249876166	-29.75651826265835				
	1835	1836	0.0027260106697231503	0.021514943194787993	0.0054489833277901615	10000	10000	10000	0	0	1	-59.99999999999999	59.99999999999999	-265.7820684864706	55.187951066847376	267.7122537648319	-40.51968393627478				
	1840	1859	0.002121099905560261	0.0077782316386699685	0.00029375069035682803	10000	10000	10000	0	0	1	-59.99999999999999	59.99999999999999	-16.884764021233416	6.7418210690996325	16.89160159261504	-6.746882008816005				
	1840	1874	0.0009618210398126394	0.004919894591439518	0.00023259283686443232	10000	10000	10000	0	0	1	-59.99999999999999	59.99999999999999	1.749866431991539	1.5339463524475427	-1.749815325992817	-1.5575475057181898				
	1840	1952	0.0020494322078209405	0.0077772811960428985	0.00029152839974965893	10000	10000	10000	0	0	1	-59.99999999999999	59.99999999999999	15.134897589241813	-8.275767421545336	-15.128959082831283	8.268381731209754				
	1841	1940	0.00499574741994589	0.03797440961434039	0.0014720937914913497	10000	10000	10000	0	0	1	-59.99999999999999	59.99999999999999	0.00010249292213944871	-0.1541392397841847	-0.00010221008012297405	-0.00010221008021599198				
	1844	1845	0.005077569911587979	0.030502627649799913	0.0005794558033542709	10000	10000	10000	0	0	1	-59.99999999999999	59.99999999999999	16.86645972767711	3.4176153427574185	-16.85102522838007	-3.3812780438414514				
	1846	1847	0.0052062084479816305	0.03238952698141902	0.0005285301813706761	10000	10000	10000	0	0	1	-59.99999999999999	59.99999999999999	4.270063247627926	2.0091380342816354	-4.268922338886844	-2.055967682615348				
	1846	1890	0.00448208322741091	0.06089291542628778	0.0009865619730670002	10000	10000	10000	0	0	1	-59.99999999999999	59.99999999999999	-5.498609454356384	-2.6869779727150944	5.500241558164753	2.608219181431888				
	1847	1889	0.00579553107363172	0.034081292097140094	0.0006132574355229733	10000	10000	10000	0	0	1	-59.99999999999999	59.99999999999999	-3.796215884586419	-1.396874927310007	3.797141176540498	1.339755519300864				
	1849	1850	0.006284856719761162	0.03881352663338179	0.0006025065828301011	10000	10000	10000	0	0	1	-59.99999999999999	59.99999999999999	11.967871551429548	5.57605998515612	-11.957299144048344	-5.573153569897612				
	1850	1948	0.02023821762383919	0.04079699764861731	0.000617403492350131	10000	10000	10000	0	0	1	-59.99999999999999	59.99999999999999	10.360962354866537	-3.880314340558408	-10.337018072024556	3.8648656334452				
	1850	1993	0.015521217692010097	0.04291135224832219	0.000803669084832072	10000	10000	10000	0	0	1	-59.99999999999999	59.99999999999999	-16.87390133215126	2.0754322556343165	16.917376311884375	-2.038357894390378				
	1851	1852	0.0021768131842184795	0.014381807963093693	0.0009954252243041986	10000	10000	10000	0	0	1	-59.99999999999999	59.99999999999999	12.31501882486907	-4.8227466519990685	-12.311357346219728	4.743672195726958				
	1851	1948	0.010876878534145696	0.035261883162707106	0.0005819795131869611	10000	10000	10000	0	0	1	-59.99999999999999	59.99999999999999	6.282956622968139	5.822003865124806	-6.275223747389513	-5.85712495762413				
	1852	1855	0.00344685455928091	0.019954202831773994	0.0010193188851233595	10000	10000	10000	0	0	1	-59.99999999999999	59.99999999999999	3.9318902671970553	1.7361044534399974	-3.9312705122819342	-1.8382531628798284				
	1853	1854	0.0014362620741780803	0.0063325573959015285	0.00019883051568642297	10000	10000	10000	0	0	1	-59.99999999999999	59.99999999999999	36.364625069913856	15.282974419044832	-36.3432833619688	-15.20967254153261				
	1853	1856	0.004707046251534481	0.02881341284160319	0.0005513154470734301	10000	10000	10000	0	0	1	-59.99999999999999	59.99999999999999	21.829034356712498	10.595648370839161	-21.80254577836477	-10.491020619833524				
	1854	1855	0.010247998668449002	0.03384062687972559	0.0005974919525440781	10000	10000	10000	0	0	1	-59.99999999999999	59.99999999999999	20.417103952497047	5.001921525381086	-20.3737135766314	-4.920814311009529				
	1856	1863	0.003362112792167351	0.0213948972185981	0.0003893723726458851	10000	10000	10000	0	0	1	-59.99999999999999	59.99999999999999	12.540289021249334	8.427061206128217	-12.532892766242393	-8.420372590651981				
	1858	1861	0.00929460792168975	0.03154135899234558	0.0018787191797420394	10000	10000	10000	0	0	1	-59.99999999999999	59.99999999999999	44.21414727872312	6.025164799131715	-44.037153416249645	-5.619984564374163				
	1858	1862	0.0014600662600528498	0.008199577798373069	0.00040224829759448786	10000	10000	10000	0	0	1	-59.99999999999999	59.99999999999999	21.382137211410072	-3.0633314568636214	-21.37562794238939	3.057802972603368				
	1858	1864	0.00487805978916585	0.017447216490861006	0.00103910950869322	10000	10000	10000	0	0	1	-59.99999999999999	59.99999999999999	51.40157788408776	16.750398034377064	-51.2652278142986	-16.370877842448913				
	1858	1942	0.00738868617018778	0.0331324154646462	0.0010009577464778	10000	10000	10000	0	0	1	-59.99999999999999	59.99999999999999	11.48865984395237	3.8991065227545656	-11.478236261862278	-3.9568777004469107				
	1858	1946	0.002389419779763561	0.016077427107542792	0.000302921552611515	10000	10000	10000	0	0	1	-59.99999999999999	59.99999999999999	-6.160477754785343	-8.329617876221814	6.162922956552808	8.314331663728321				
	1858	1946	0.00255921796278562	0.016311580365579597	0.00029412263201549605	10000	10000	10000	0	0	1	-59.99999999999999	59.99999999999999	-6.130538377785599	-8.150381939548666	6.133076412027926	8.135741445971021				
	1859	1860	0.011320955048333902	0.023049040959067586	0.00041561243215575795	10000	10000	10000	0	0	1	-59.99999999999999	59.99999999999999	4.8539089006476335	2.1380015031180517	-4.8507938284804855	-2.1742451131967084				
	1859	1860	0.011068395767826596	0.022344791481792886	0.00040157693568617086	10000	10000	10000	0	0	1	-59.99999999999999	59.99999999999999	5.006043532113443	2.18628097198551	-5.002813675214531	-2.2209081934966397				
	1859	1862	0.024259698681146802	0.055256378160733685	0.004600930962692949	10000	10000	10000	0	0	1	-59.99999999999999	59.99999999999999	-37.12246521721195	-2.004987230114885	37.44914692060267	2.2724485533789363				
	1861	1943	0.004830689109331	0.015573493704143902	0.0010337936299387401	10000	10000	10000	0	0	1	-59.99999999999999	59.99999999999999	39.517089088855876	4.690878366907482	-39.44311063032631	-4.559045827821974				
	1862	1946	0.0025684859206667196	0.01610694293254989	0.00030992684463970396	10000	10000	10000	0	0	1	-59.99999999999999	59.99999999999999	-17.18195527482127	-6.850039548924477	17.19035000693605	6.870211743309048				
	1863	1948	0.00818593295722827	0.04564489076295218	0.0009352426844662989	10000	10000	10000	0	0	1	-59.99999999999999	59.99999999999999	-0.9208655445567171	3.7088758003201874	0.9220494089512332	-3.7988974265407918				
	1864	1865	0.0018640978342015309	0.007634412627434357	0.00038095766017213497	10000	10000	10000	0	0	1	-59.99999999999999	59.99999999999999	48.64235341298644	18.536097998988442	-48.59356061492426	-18.375626676985167				
	1865	1866	0.004889731844607738	0.01584452768261539	0.0010052672717254599	10000	10000	10000	0	0	1	-59.99999999999999	59.99999999999999	29.296946994498214	3.5089543628619824	-29.255632840398277	-3.4785106892696094				
	1866	1869	0.0032554600163921706	0.010521342551773397	0.000577288544392213	10000	10000	10000	0	0	1	-59.99999999999999	59.99999999999999	24.40439842871504	-0.9670486222009195	-24.385489570435354	0.9689191166660144				
	1867	1942	0.0014800859142565202	0.0066033685394562775	0.000205077650500461	10000	10000	10000	0	0	1	-59.99999999999999	59.99999999999999	-11.374798755742916	-4.285553660043758	11.376898031956756	4.273560159192454				
	1868	1939	0.017709514504429008	0.0238755691211671	0.000206711522275582	10000	10000	10000	0	0	1	-59.99999999999999	59.99999999999999	-9.285242636084796	-5.417104035701882	9.30498750264504	5.422258993039676				
	1869	1871	0.0037051519564166705	0.02350979670616799	0.00039406569080427297	10000	10000	10000	0	0	1	-59.99999999999999	59.99999999999999	19.553953889881203	-3.7251770436199942	-19.539643361796443	3.7755618708033305				
	1870	1905	0.009311865533045492	0.04780231110742321	0.0012661632441030803	10000	10000	10000	0	0	1	-59.99999999999999	59.99999999999999	-6.569514137306159	-3.124217953943443	6.574281612133342	3.0185479070107277				
	1871	1879	0.003547150855790819	0.014529007987924891	0.0008180498147383325	10000	10000	10000	0	0	1	-59.99999999999999	59.99999999999999	18.828528875666763	-3.7273596552380113	-18.81580060363609	3.6955875830697877				
...